/*--------------------------------*- C++ -*----------------------------------*\
| =========                 |                                                 |
| \\      /  F ield         | OpenFOAM: The Open Source CFD Toolbox           |
|  \\    /   O peration     | Version:  v1812                                 |
|   \\  /    A nd           | Web:      www.OpenFOAM.com                      |
|    \\/     M anipulation  |                                                 |
\*---------------------------------------------------------------------------*/
FoamFile
{
    version     2.0;
    format      ascii;
    class       dictionary;
    location    "system";
    object      fvSolution;
}
// * * * * * * * * * * * * * * * * * * * * * * * * * * * * * * * * * * * * * //

solvers
{
    alpha.water
    {
        nAlphaCorr      2;
        nAlphaSubCycles 1;
        cAlpha          1;
        icAlpha         0;
        scAlpha         1;

        MULESCorr       yes;
        nLimiterIter    5;

        solver          smoothSolver;
        smoother        symGaussSeidel;
        tolerance       1e-8;
        relTol          0;
    }

    alpha.waterFinal
    {
        nAlphaCorr      2;
        nAlphaSubCycles 1;
        cAlpha          1;
        icAlpha         0;
        scAlpha         1;

        MULESCorr       yes;
        nLimiterIter    5;

        solver          smoothSolver;
        smoother        symGaussSeidel;
        tolerance       1e-8;
        relTol          0;
    }

    "pcorr.*"
    {
        solver          PCG;
        preconditioner  DIC;
        tolerance       1e-5;
        relTol          0;
    }

    p_rgh
    {
        solver          PCG;
        preconditioner  DIC;
        tolerance       1e-07;
        relTol          0.5;
    }

    p_rghFinal
    {
        $p_rgh;
        relTol          0;
    }

    psi
    {
        $alpha.water;
        nAlphaCorr      2;
        nAlphaSubCycles 1;
        cAlpha          1;
        icAlpha         0;
        scAlpha         1;
        deltaX          2.5e-02;
        gammaCoeff      0.75;
        epsilonCoeff    1.5;
        deltaTauCoeff   0.1;
    }

    U
    {
        solver          smoothSolver;
        smoother        symGaussSeidel;
        tolerance       1e-07;
        relTol          0;
    }
}

PIMPLE
{
    momentumPredictor   no;
    nOuterCorrectors    1;
    nCorrectors         3;
    nNonOrthogonalCorrectors 0;
    pRefCell 0;
    pRefValue 0;
    frozenFlow no;
}

relaxationFactors
{
    equations
    {
        ".*" 1;
    }
}


// ************************************************************************* //
